Version 4
SHEET 1 1332 680
WIRE 192 -256 192 -544
WIRE -672 -160 -672 -208
WIRE -400 -160 -400 -208
WIRE 192 -64 192 -176
WIRE 352 -64 192 -64
WIRE 368 -64 352 -64
WIRE 528 -64 416 -64
WIRE -672 -32 -672 -80
WIRE -400 -32 -400 -80
WIRE 192 -16 192 -64
WIRE 32 32 0 32
WIRE 96 32 64 32
WIRE 112 32 96 32
WIRE 528 80 528 16
WIRE 192 144 192 80
FLAG 0 32 W1
IOPIN 0 32 In
FLAG -672 -32 0
FLAG -672 -208 W1
IOPIN -672 -208 In
FLAG 528 80 0
FLAG -400 -32 0
FLAG -400 -208 Vb
IOPIN -400 -208 In
FLAG 192 -544 Vb
IOPIN 192 -544 In
FLAG 192 144 0
SYMBOL voltage -672 -176 R0
WINDOW 3 -259 214 Left 2
WINDOW 123 0 0 Left 0
WINDOW 39 0 0 Left 0
SYMATTR Value PULSE(0 5 0 0.1p 0.1p 35ns 70ns)
SYMATTR InstName V1
SYMBOL cap 416 -80 R90
WINDOW 0 0 32 VBottom 2
WINDOW 3 32 32 VTop 2
SYMATTR InstName C1
SYMATTR Value 100nF
SYMBOL cap 96 16 R90
WINDOW 0 0 32 VBottom 2
WINDOW 3 32 32 VTop 2
SYMATTR InstName C4
SYMATTR Value 100nF
SYMBOL voltage -400 -176 R0
WINDOW 123 0 0 Left 0
WINDOW 39 0 0 Left 0
SYMATTR InstName V3
SYMATTR Value 8
SYMBOL ind 176 -272 R0
SYMATTR InstName L2
SYMATTR Value 47µH
SYMBOL res 512 -80 R0
SYMATTR InstName R1
SYMATTR Value 50
SYMBOL EXTRA\\IRF\\NMOSFET\\irf510 160 32 R0
SYMATTR InstName U1
TEXT -280 -80 Left 2 !.lib bs170.lib
TEXT -408 -512 Left 2 !.tran 250us
TEXT -1104 -752 Left 2 ;35ns 70ns  <-> 71ns 142ns
